ICS stands for Interface Code Saturne.

This is the Graphical User Interface of Code_Saturne.

WWW: http://rd.edf.com/code_saturne/
