ICS stands for Interface Code Saturne.

This is the Graphical User Interface of Code_Saturne.

WWW: http://www.code-saturne.org/
