--- tcl/run_aster.orig	Thu Jun 26 17:57:43 2003
+++ tcl/run_aster	Fri Jul 18 23:01:40 2003
@@ -5,6 +5,7 @@
 TCLSH=HOME_TCL_TK/bin/TCL_BIN
 REPTCL=HOME_CODE_ASTER/tcl
 PYTHONHOME=HOME_PYTHON
+PYTHONPATH=%%PYTHONPATH%%
 
 # lancement de run_aster
 # usage : run_aster [-p ncpu] fichier_parametre
@@ -32,6 +33,7 @@
 fi
 
 export PYTHONHOME
+export PYTHONPATH
 
 OMP_NUM_THREADS=$ncpu
 export OMP_NUM_THREADS
