--- CONFIG/onmetis.in.orig	2008-12-16 13:28:55.000000000 +0100
+++ CONFIG/onmetis.in	2009-01-19 21:56:08.000000000 +0100
@@ -1,4 +1,4 @@
-#!/bin/bash
+#! /bin/sh
 #
 # shell-script to call METIS from CODE_ASTER
 #  $1 : data file for METIS (numerotation)
@@ -10,9 +10,6 @@
 # install directory
 METIS_INSTALL=HOME_METIS
 
-LD_LIBRARY_PATH=LD_LIB_PATH_VALUE:$LD_LIBRARY_PATH
-export LD_LIBRARY_PATH
-
 repinit=`pwd`
 tmp_metis=$repinit/dir_metis
 
