--- bin/grp.orig	Thu Mar  1 12:23:39 2007
+++ bin/grp	Mon May  7 14:08:44 2007
@@ -1,4 +1,4 @@
-#!/bin/ksh
+#!/bin/sh
 #============================================================================
 #
 #                    Code_Saturne version 1.3
