--- bin/gracehst.orig	2007-11-23 18:35:59.000000000 +0100
+++ bin/gracehst	2007-12-30 22:02:36.000000000 +0100
@@ -1,4 +1,4 @@
-#!/bin/ksh
+#! /bin/sh
 #============================================================================
 #
 #                    Code_Saturne version 1.3
