ECS means "Enveloppe Code Saturne".
This is the preprocessor used by the Code_Saturne and NEPTUNE_CDF codes.

WWW: http://rd.edf.com/code_saturne/
